final year project/energy function/energy function/energy function/NRPG/NRexciter_pristine.seq
0,  32           / PSS®E-32.0    SUN, NOV 16 2014  18:04
     1,'1 ', 0.00000E+00, 1.00000E+00
     2,'1 ', 0.00000E+00, 1.00000E+00
     3,'1 ', 0.00000E+00, 1.00000E+00
     4,'1 ', 0.00000E+00, 1.00000E+00
     5,'1 ', 0.00000E+00, 1.00000E+00
     6,'1 ', 0.00000E+00, 1.00000E+00
     7,'1 ', 0.00000E+00, 1.00000E+00
     8,'1 ', 0.00000E+00, 1.00000E+00
     9,'1 ', 0.00000E+00, 1.00000E+00
    10,'1 ', 0.00000E+00, 1.00000E+00
    11,'1 ', 0.00000E+00, 1.00000E+00
    12,'1 ', 0.00000E+00, 1.00000E+00
    13,'1 ', 0.00000E+00, 1.00000E+00
    14,'1 ', 0.00000E+00, 1.00000E+00
    15,'1 ', 0.00000E+00, 1.00000E+00
    16,'1 ', 0.00000E+00, 1.00000E+00
    16,'2 ', 0.00000E+00, 1.00000E+00
    17,'1 ', 0.00000E+00, 1.00000E+00
    18,'1 ', 0.00000E+00, 1.00000E+00
    18,'2 ', 0.00000E+00, 1.00000E+00
    18,'3 ', 0.00000E+00, 1.00000E+00
    18,'4 ', 0.00000E+00, 1.00000E+00
    18,'5 ', 0.00000E+00, 1.00000E+00
    18,'6 ', 0.00000E+00, 1.00000E+00
    18,'7 ', 0.00000E+00, 1.00000E+00
    18,'8 ', 0.00000E+00, 1.00000E+00
    19,'1 ', 0.00000E+00, 1.00000E+00
    20,'1 ', 0.00000E+00, 1.00000E+00
    21,'1 ', 0.00000E+00, 1.00000E+00
    21,'2 ', 0.00000E+00, 1.00000E+00
    22,'1 ', 0.00000E+00, 1.00000E+00
    23,'1 ', 0.00000E+00, 1.00000E+00
    24,'1 ', 0.00000E+00, 1.00000E+00
    25,'1 ', 0.00000E+00, 1.00000E+00
    26,'1 ', 0.00000E+00, 1.00000E+00
    27,'1 ', 0.00000E+00, 1.00000E+00
    28,'1 ', 0.00000E+00, 1.00000E+00
    28,'2 ', 0.00000E+00, 1.00000E+00
    29,'1 ', 0.00000E+00, 1.00000E+00
    30,'1 ', 0.00000E+00, 1.00000E+00
    31,'1 ', 0.00000E+00, 1.00000E+00
    32,'1 ', 0.00000E+00, 1.00000E+00
    32,'2 ', 0.00000E+00, 1.00000E+00
    33,'1 ', 0.00000E+00, 1.00000E+00
    34,'1 ', 0.00000E+00, 1.00000E+00
    34,'2 ', 0.00000E+00, 1.00000E+00
    35,'1 ', 0.00000E+00, 1.00000E+00
    35,'2 ', 0.00000E+00, 1.00000E+00
    36,'1 ', 0.00000E+00, 1.00000E+00
    36,'2 ', 0.00000E+00, 1.00000E+00
    37,'1 ', 0.00000E+00, 1.00000E+00
    37,'2 ', 0.00000E+00, 1.00000E+00
    38,'1 ', 0.00000E+00, 1.00000E+00
    38,'2 ', 0.00000E+00, 1.00000E+00
    38,'3 ', 0.00000E+00, 1.00000E+00
    39,'1 ', 0.00000E+00, 1.00000E+00
    40,'1 ', 0.00000E+00, 1.00000E+00
    41,'1 ', 0.00000E+00, 1.00000E+00
    41,'2 ', 0.00000E+00, 1.00000E+00
    42,'1 ', 0.00000E+00, 1.00000E+00
0  / END OF POSITIVE SEQ. MACHINE IMPEDANCE DATA, BEGIN NEGATIVE SEQ. MACHINE DATA
     1,'1 ', 0.00000E+00, 1.00000E+00
     2,'1 ', 0.00000E+00, 1.00000E+00
     3,'1 ', 0.00000E+00, 1.00000E+00
     4,'1 ', 0.00000E+00, 1.00000E+00
     5,'1 ', 0.00000E+00, 1.00000E+00
     6,'1 ', 0.00000E+00, 1.00000E+00
     7,'1 ', 0.00000E+00, 1.00000E+00
     8,'1 ', 0.00000E+00, 1.00000E+00
     9,'1 ', 0.00000E+00, 1.00000E+00
    10,'1 ', 0.00000E+00, 1.00000E+00
    11,'1 ', 0.00000E+00, 1.00000E+00
    12,'1 ', 0.00000E+00, 1.00000E+00
    13,'1 ', 0.00000E+00, 1.00000E+00
    14,'1 ', 0.00000E+00, 1.00000E+00
    15,'1 ', 0.00000E+00, 1.00000E+00
    16,'1 ', 0.00000E+00, 1.00000E+00
    16,'2 ', 0.00000E+00, 1.00000E+00
    17,'1 ', 0.00000E+00, 1.00000E+00
    18,'1 ', 0.00000E+00, 1.00000E+00
    18,'2 ', 0.00000E+00, 1.00000E+00
    18,'3 ', 0.00000E+00, 1.00000E+00
    18,'4 ', 0.00000E+00, 1.00000E+00
    18,'5 ', 0.00000E+00, 1.00000E+00
    18,'6 ', 0.00000E+00, 1.00000E+00
    18,'7 ', 0.00000E+00, 1.00000E+00
    18,'8 ', 0.00000E+00, 1.00000E+00
    19,'1 ', 0.00000E+00, 1.00000E+00
    20,'1 ', 0.00000E+00, 1.00000E+00
    21,'1 ', 0.00000E+00, 1.00000E+00
    21,'2 ', 0.00000E+00, 1.00000E+00
    22,'1 ', 0.00000E+00, 1.00000E+00
    23,'1 ', 0.00000E+00, 1.00000E+00
    24,'1 ', 0.00000E+00, 1.00000E+00
    25,'1 ', 0.00000E+00, 1.00000E+00
    26,'1 ', 0.00000E+00, 1.00000E+00
    27,'1 ', 0.00000E+00, 1.00000E+00
    28,'1 ', 0.00000E+00, 1.00000E+00
    28,'2 ', 0.00000E+00, 1.00000E+00
    29,'1 ', 0.00000E+00, 1.00000E+00
    30,'1 ', 0.00000E+00, 1.00000E+00
    31,'1 ', 0.00000E+00, 1.00000E+00
    32,'1 ', 0.00000E+00, 1.00000E+00
    32,'2 ', 0.00000E+00, 1.00000E+00
    33,'1 ', 0.00000E+00, 1.00000E+00
    34,'1 ', 0.00000E+00, 1.00000E+00
    34,'2 ', 0.00000E+00, 1.00000E+00
    35,'1 ', 0.00000E+00, 1.00000E+00
    35,'2 ', 0.00000E+00, 1.00000E+00
    36,'1 ', 0.00000E+00, 1.00000E+00
    36,'2 ', 0.00000E+00, 1.00000E+00
    37,'1 ', 0.00000E+00, 1.00000E+00
    37,'2 ', 0.00000E+00, 1.00000E+00
    38,'1 ', 0.00000E+00, 1.00000E+00
    38,'2 ', 0.00000E+00, 1.00000E+00
    38,'3 ', 0.00000E+00, 1.00000E+00
    39,'1 ', 0.00000E+00, 1.00000E+00
    40,'1 ', 0.00000E+00, 1.00000E+00
    41,'1 ', 0.00000E+00, 1.00000E+00
    41,'2 ', 0.00000E+00, 1.00000E+00
    42,'1 ', 0.00000E+00, 1.00000E+00
0  / END OF NEGATIVE SEQ. MACHINE IMPEDANCE DATA, BEGIN ZERO SEQ. MACHINE DATA
     1,'1 ', 0.00000E+00, 1.00000E+00
     2,'1 ', 0.00000E+00, 1.00000E+00
     3,'1 ', 0.00000E+00, 1.00000E+00
     4,'1 ', 0.00000E+00, 1.00000E+00
     5,'1 ', 0.00000E+00, 1.00000E+00
     6,'1 ', 0.00000E+00, 1.00000E+00
     7,'1 ', 0.00000E+00, 1.00000E+00
     8,'1 ', 0.00000E+00, 1.00000E+00
     9,'1 ', 0.00000E+00, 1.00000E+00
    10,'1 ', 0.00000E+00, 1.00000E+00
    11,'1 ', 0.00000E+00, 1.00000E+00
    12,'1 ', 0.00000E+00, 1.00000E+00
    13,'1 ', 0.00000E+00, 1.00000E+00
    14,'1 ', 0.00000E+00, 1.00000E+00
    15,'1 ', 0.00000E+00, 1.00000E+00
    16,'1 ', 0.00000E+00, 1.00000E+00
    16,'2 ', 0.00000E+00, 1.00000E+00
    17,'1 ', 0.00000E+00, 1.00000E+00
    18,'1 ', 0.00000E+00, 1.00000E+00
    18,'2 ', 0.00000E+00, 1.00000E+00
    18,'3 ', 0.00000E+00, 1.00000E+00
    18,'4 ', 0.00000E+00, 1.00000E+00
    18,'5 ', 0.00000E+00, 1.00000E+00
    18,'6 ', 0.00000E+00, 1.00000E+00
    18,'7 ', 0.00000E+00, 1.00000E+00
    18,'8 ', 0.00000E+00, 1.00000E+00
    19,'1 ', 0.00000E+00, 1.00000E+00
    20,'1 ', 0.00000E+00, 1.00000E+00
    21,'1 ', 0.00000E+00, 1.00000E+00
    21,'2 ', 0.00000E+00, 1.00000E+00
    22,'1 ', 0.00000E+00, 1.00000E+00
    23,'1 ', 0.00000E+00, 1.00000E+00
    24,'1 ', 0.00000E+00, 1.00000E+00
    25,'1 ', 0.00000E+00, 1.00000E+00
    26,'1 ', 0.00000E+00, 1.00000E+00
    27,'1 ', 0.00000E+00, 1.00000E+00
    28,'1 ', 0.00000E+00, 1.00000E+00
    28,'2 ', 0.00000E+00, 1.00000E+00
    29,'1 ', 0.00000E+00, 1.00000E+00
    30,'1 ', 0.00000E+00, 1.00000E+00
    31,'1 ', 0.00000E+00, 1.00000E+00
    32,'1 ', 0.00000E+00, 1.00000E+00
    32,'2 ', 0.00000E+00, 1.00000E+00
    33,'1 ', 0.00000E+00, 1.00000E+00
    34,'1 ', 0.00000E+00, 1.00000E+00
    34,'2 ', 0.00000E+00, 1.00000E+00
    35,'1 ', 0.00000E+00, 1.00000E+00
    35,'2 ', 0.00000E+00, 1.00000E+00
    36,'1 ', 0.00000E+00, 1.00000E+00
    36,'2 ', 0.00000E+00, 1.00000E+00
    37,'1 ', 0.00000E+00, 1.00000E+00
    37,'2 ', 0.00000E+00, 1.00000E+00
    38,'1 ', 0.00000E+00, 1.00000E+00
    38,'2 ', 0.00000E+00, 1.00000E+00
    38,'3 ', 0.00000E+00, 1.00000E+00
    39,'1 ', 0.00000E+00, 1.00000E+00
    40,'1 ', 0.00000E+00, 1.00000E+00
    41,'1 ', 0.00000E+00, 1.00000E+00
    41,'2 ', 0.00000E+00, 1.00000E+00
    42,'1 ', 0.00000E+00, 1.00000E+00
0  / END OF ZERO SEQ. MACHINE IMPEDANCE DATA, BEGIN NEGATIVE SEQ. SHUNT DATA
0  / END OF NEGATIVE SEQ. SHUNT DATA, BEGIN ZERO SEQ. SHUNT DATA
0  / END OF ZERO SEQ. SHUNT DATA, BEGIN ZERO SEQ. NON-TRANSFORMER BRANCH DATA
     1,    24,'1 ', 1.64160E-1, 1.44505E-1,    0.01491, 0.00000E+0, 0.00000E+0, 0.00000E+0, 0.00000E+0
     1,   198,'1 ', 1.06400E-1, 9.27550E-2,    0.03834, 0.00000E+0, 0.00000E+0, 0.00000E+0, 0.00000E+0
     1,   199,'1 ', 4.62080E-1, 4.04015E-1,    0.04176, 0.00000E+0, 0.00000E+0, 0.00000E+0, 0.00000E+0
     1,   226,'1 ', 1.76320E-1, 1.54755E-1,    0.06390, 0.00000E+0, 0.00000E+0, 0.00000E+0, 0.00000E+0
     2,   187,'1 ', 2.28000E-1, 2.15760E-1,    0.09030, 0.00000E+0, 0.00000E+0, 0.00000E+0, 0.00000E+0
     3,    71,'1 ', 5.65440E-2, 1.03755E-1,    0.16651, 0.00000E+0, 0.00000E+0, 0.00000E+0, 0.00000E+0
     3,    73,'1 ', 4.71200E-2, 8.65050E-2,    0.55616, 0.00000E+0, 0.00000E+0, 0.00000E+0, 0.00000E+0
     4,    62,'1 ', 2.61440E-2, 4.82500E-2,    0.03970, 0.00000E+0, 0.00000E+0, 0.00000E+0, 0.00000E+0
     5,     6,'1 ', 0.00000E+0, 6.25050E-2,    0.00000, 0.00000E+0, 0.00000E+0, 0.00000E+0, 0.00000E+0
     6,    65,'1 ', 3.73920E-2, 3.30000E-2,    0.03069, 0.00000E+0, 0.00000E+0, 0.00000E+0, 0.00000E+0
     7,    65,'1 ', 5.92800E-2, 5.15000E-2,    0.02130, 0.00000E+0, 0.00000E+0, 0.00000E+0, 0.00000E+0
     7,    67,'1 ', 1.97600E-1, 1.77260E-1,    0.07326, 0.00000E+0, 0.00000E+0, 0.00000E+0, 0.00000E+0
     7,    79,'1 ', 1.20080E-1, 1.05255E-1,    0.04344, 0.00000E+0, 0.00000E+0, 0.00000E+0, 0.00000E+0
     7,   105,'1 ', 5.26832E-1, 4.61970E-1,    0.04771, 0.00000E+0, 0.00000E+0, 0.00000E+0, 0.00000E+0
     8,    10,'1 ', 0.00000E+0, 6.25050E-2,    0.00000, 0.00000E+0, 0.00000E+0, 0.00000E+0, 0.00000E+0
     8,    65,'1 ', 1.32240E-1, 1.15505E-1,    0.04770, 0.00000E+0, 0.00000E+0, 0.00000E+0, 0.00000E+0
     9,    11,'1 ', 4.52960E-1, 3.96015E-1,    0.04089, 0.00000E+0, 0.00000E+0, 0.00000E+0, 0.00000E+0
     9,    60,'1 ', 2.82112E-1, 2.47460E-1,    0.02556, 0.00000E+0, 0.00000E+0, 0.00000E+0, 0.00000E+0
    10,    69,'1 ', 1.97600E-1, 3.63015E-1,    0.28277, 0.00000E+0, 0.00000E+0, 0.00000E+0, 0.00000E+0
    10,   131,'1 ', 1.45920E-1, 2.66510E-1,    0.12791, 0.00000E+0, 0.00000E+0, 0.00000E+0, 0.00000E+0
    11,    60,'1 ', 2.11584E-1, 1.85610E-1,    0.01917, 0.00000E+0, 0.00000E+0, 0.00000E+0, 0.00000E+0
    11,    64,'1 ', 1.54128E-1, 1.34655E-1,    0.12529, 0.00000E+0, 0.00000E+0, 0.00000E+0, 0.00000E+0
    11,    86,'1 ', 1.97600E-1, 1.73010E-1,    0.01788, 0.00000E+0, 0.00000E+0, 0.00000E+0, 0.00000E+0
    12,    80,'1 ', 4.22560E-2, 3.71500E-2,    0.06135, 0.00000E+0, 0.00000E+0, 0.00000E+0, 0.00000E+0
    13,    88,'1 ', 2.46240E-1, 2.16510E-1,    0.08946, 0.00000E+0, 0.00000E+0, 0.00000E+0, 0.00000E+0
    13,    90,'1 ', 7.38720E-2, 6.50050E-2,    0.10741, 0.00000E+0, 0.00000E+0, 0.00000E+0, 0.00000E+0
    13,    91,'1 ', 2.15840E-1, 1.89760E-1,    0.07836, 0.00000E+0, 0.00000E+0, 0.00000E+0, 0.00000E+0
    13,   100,'1 ', 1.08224E-1, 9.48550E-2,    0.03919, 0.00000E+0, 0.00000E+0, 0.00000E+0, 0.00000E+0
    14,    15,'1 ', 3.52640E-2, 3.09500E-2,    0.01278, 0.00000E+0, 0.00000E+0, 0.00000E+0, 0.00000E+0
    14,    93,'1 ', 1.17040E-1, 1.03005E-1,    0.04260, 0.00000E+0, 0.00000E+0, 0.00000E+0, 0.00000E+0
    15,    89,'1 ', 1.29504E-1, 1.13455E-1,    0.04686, 0.00000E+0, 0.00000E+0, 0.00000E+0, 0.00000E+0
    15,    98,'1 ', 1.41360E-1, 1.23755E-1,    0.05112, 0.00000E+0, 0.00000E+0, 0.00000E+0, 0.00000E+0
    15,    99,'1 ', 1.00928E-1, 8.87050E-2,    0.03664, 0.00000E+0, 0.00000E+0, 0.00000E+0, 0.00000E+0
    16,   109,'1 ', 1.27680E-2, 1.14005E-1,    0.01872, 0.00000E+0, 0.00000E+0, 0.00000E+0, 0.00000E+0
    16,   113,'1 ', 1.79360E-1, 1.56755E-1,    0.06474, 0.00000E+0, 0.00000E+0, 0.00000E+0, 0.00000E+0
    16,   125,'1 ', 9.42400E-2, 8.25050E-2,    0.03408, 0.00000E+0, 0.00000E+0, 0.00000E+0, 0.00000E+0
    17,    34,'1 ', 5.62400E-2, 4.95000E-2,    0.05046, 0.00000E+0, 0.00000E+0, 0.00000E+0, 0.00000E+0
    17,   121,'1 ', 5.50240E-1, 4.82570E-1,    0.04984, 0.00000E+0, 0.00000E+0, 0.00000E+0, 0.00000E+0
    17,   229,'1 ', 7.90400E-3, 6.85000E-3,    0.03639, 0.00000E+0, 0.00000E+0, 0.00000E+0, 0.00000E+0
    18,   133,'1 ', 9.12000E-3, 8.25000E-3,    0.00342, 0.00000E+0, 0.00000E+0, 0.00000E+0, 0.00000E+0
    18,   134,'1 ', 3.04000E-3, 2.00000E-3,    0.00840, 0.00000E+0, 0.00000E+0, 0.00000E+0, 0.00000E+0
    19,    21,'1 ', 1.17040E-1, 1.03005E-1,    0.04260, 0.00000E+0, 0.00000E+0, 0.00000E+0, 0.00000E+0
    19,   169,'1 ', 6.77920E-1, 5.94025E-1,    0.06135, 0.00000E+0, 0.00000E+0, 0.00000E+0, 0.00000E+0
    20,    21,'1 ', 2.34992E-1, 2.06210E-1,    0.02130, 0.00000E+0, 0.00000E+0, 0.00000E+0, 0.00000E+0
    20,    37,'1 ', 5.17408E-1, 4.53720E-1,    0.04686, 0.00000E+0, 0.00000E+0, 0.00000E+0, 0.00000E+0
    20,   168,'1 ', 1.06278E+0, 9.32190E-1,    0.09630, 0.00000E+0, 0.00000E+0, 0.00000E+0, 0.00000E+0
    20,   170,'1 ', 3.92464E-1, 3.44415E-1,    0.14228, 0.00000E+0, 0.00000E+0, 0.00000E+0, 0.00000E+0
    21,    37,'1 ', 1.17040E-1, 1.03005E-1,    0.04260, 0.00000E+0, 0.00000E+0, 0.00000E+0, 0.00000E+0
    21,   160,'1 ', 3.30448E-1, 2.90165E-1,    0.26964, 0.00000E+0, 0.00000E+0, 0.00000E+0, 0.00000E+0
    21,   165,'1 ', 3.17680E-1, 2.78510E-1,    0.11502, 0.00000E+0, 0.00000E+0, 0.00000E+0, 0.00000E+0
    21,   166,'1 ', 4.74240E-1, 4.16520E-1,    0.17208, 0.00000E+0, 0.00000E+0, 0.00000E+0, 0.00000E+0
    22,    23,'1 ', 0.00000E+0, 6.25050E-2,    0.00000, 0.00000E+0, 0.00000E+0, 0.00000E+0, 0.00000E+0
    22,   157,'1 ', 3.99760E-1, 3.50565E-1,    0.14485, 0.00000E+0, 0.00000E+0, 0.00000E+0, 0.00000E+0
    23,   180,'1 ', 4.65120E-2, 8.56050E-2,    0.24947, 0.00000E+0, 0.00000E+0, 0.00000E+0, 0.00000E+0
    24,   191,'1 ', 4.22560E-1, 3.71015E-1,    0.03834, 0.00000E+0, 0.00000E+0, 0.00000E+0, 0.00000E+0
    24,   192,'1 ', 3.70880E-1, 3.26015E-1,    0.03366, 0.00000E+0, 0.00000E+0, 0.00000E+0, 0.00000E+0
    24,   198,'1 ', 1.06400E-1, 9.27550E-2,    0.03834, 0.00000E+0, 0.00000E+0, 0.00000E+0, 0.00000E+0
    25,    56,'1 ', 7.05280E-2, 6.19050E-2,    0.10225, 0.00000E+0, 0.00000E+0, 0.00000E+0, 0.00000E+0
    25,    57,'1 ', 1.45616E-1, 1.27855E-1,    0.05283, 0.00000E+0, 0.00000E+0, 0.00000E+0, 0.00000E+0
    26,    27,'1 ', 9.40576E-1, 8.24935E-1,    0.08520, 0.00000E+0, 0.00000E+0, 0.00000E+0, 0.00000E+0
    26,   201,'1 ', 5.01600E-1, 4.39270E-1,    0.18151, 0.00000E+0, 0.00000E+0, 0.00000E+0, 0.00000E+0
    27,   203,'1 ', 2.11280E-1, 1.85510E-1,    0.07668, 0.00000E+0, 0.00000E+0, 0.00000E+0, 0.00000E+0
    27,   215,'1 ', 0.00000E+0, 6.25050E-2,    0.00000, 0.00000E+0, 0.00000E+0, 0.00000E+0, 0.00000E+0
    27,   222,'1 ', 6.99200E-2, 6.17550E-2,    0.02556, 0.00000E+0, 0.00000E+0, 0.00000E+0, 0.00000E+0
    27,   231,'1 ', 7.05280E-2, 6.19050E-2,    0.02556, 0.00000E+0, 0.00000E+0, 0.00000E+0, 0.00000E+0
    28,    33,'1 ', 0.00000E+0, 6.25050E-2,    0.00000, 0.00000E+0, 0.00000E+0, 0.00000E+0, 0.00000E+0
    28,   202,'1 ', 3.38352E-1, 2.97015E-1,    0.27604, 0.00000E+0, 0.00000E+0, 0.00000E+0, 0.00000E+0
    29,   205,'1 ', 1.76320E-1, 1.54755E-1,    0.06390, 0.00000E+0, 0.00000E+0, 0.00000E+0, 0.00000E+0
    29,   206,'1 ', 2.40160E-1, 2.10510E-1,    0.02172, 0.00000E+0, 0.00000E+0, 0.00000E+0, 0.00000E+0
    29,   207,'1 ', 3.52640E-1, 3.09515E-1,    0.03195, 0.00000E+0, 0.00000E+0, 0.00000E+0, 0.00000E+0
    30,   185,'1 ', 2.46240E-1, 2.16510E-1,    0.11946, 0.00000E+0, 0.00000E+0, 0.00000E+0, 0.00000E+0
    31,   219,'1 ', 1.21600E-2, 1.32500E-2,    0.00492, 0.00000E+0, 0.00000E+0, 0.00000E+0, 0.00000E+0
    32,    33,'1 ', 2.12800E-2, 3.95000E-2,    0.06327, 0.00000E+0, 0.00000E+0, 0.00000E+0, 0.00000E+0
    32,    41,'1 ', 1.52000E-2, 2.80000E-2,    0.01348, 0.00000E+0, 0.00000E+0, 0.00000E+0, 0.00000E+0
    32,    59,'1 ', 4.52960E-2, 8.30050E-2,    0.23280, 0.00000E+0, 0.00000E+0, 0.00000E+0, 0.00000E+0
    32,   218,'1 ', 1.49872E-1, 2.74960E-1,    0.14122, 0.00000E+0, 0.00000E+0, 0.00000E+0, 0.00000E+0
    32,   221,'1 ', 8.69440E-2, 3.27365E-1,    0.18739, 0.00000E+0, 0.00000E+0, 0.00000E+0, 0.00000E+0
    33,   215,'1 ', 2.18880E-1, 4.01515E-1,    0.34437, 0.00000E+0, 0.00000E+0, 0.00000E+0, 0.00000E+0
    33,   217,'1 ', 1.30720E-1, 2.38510E-1,    0.38295, 0.00000E+0, 0.00000E+0, 0.00000E+0, 0.00000E+0
    34,   135,'1 ', 1.36800E-2, 1.22500E-2,    0.01410, 0.00000E+0, 0.00000E+0, 0.00000E+0, 0.00000E+0
    34,   136,'1 ', 3.95200E-2, 3.50000E-2,    0.01446, 0.00000E+0, 0.00000E+0, 0.00000E+0, 0.00000E+0
    34,   150,'1 ', 7.60000E-3, 6.25000E-3,    0.02580, 0.00000E+0, 0.00000E+0, 0.00000E+0, 0.00000E+0
    34,   158,'1 ', 6.90080E-1, 6.06525E-1,    0.06261, 0.00000E+0, 0.00000E+0, 0.00000E+0, 0.00000E+0
    34,   183,'1 ', 9.42400E-2, 8.25050E-2,    0.08520, 0.00000E+0, 0.00000E+0, 0.00000E+0, 0.00000E+0
    35,   117,'1 ', 5.89760E-2, 5.15500E-2,    0.02130, 0.00000E+0, 0.00000E+0, 0.00000E+0, 0.00000E+0
    35,   229,'1 ', 4.01280E-2, 3.50500E-2,    0.01448, 0.00000E+0, 0.00000E+0, 0.00000E+0, 0.00000E+0
    36,   199,'1 ', 4.37760E-1, 3.83515E-1,    0.15847, 0.00000E+0, 0.00000E+0, 0.00000E+0, 0.00000E+0
    36,   237,'1 ', 0.00000E+0, 6.25050E-2,    0.00000, 0.00000E+0, 0.00000E+0, 0.00000E+0, 0.00000E+0
    37,   165,'1 ', 4.22560E-1, 3.71265E-1,    0.15336, 0.00000E+0, 0.00000E+0, 0.00000E+0, 0.00000E+0
    37,   181,'1 ', 5.17104E-1, 4.53720E-1,    0.18744, 0.00000E+0, 0.00000E+0, 0.00000E+0, 0.00000E+0
    38,   235,'1 ', 0.00000E+0, 6.25050E-2,    0.00000, 0.00000E+0, 0.00000E+0, 0.00000E+0, 0.00000E+0
    39,   203,'1 ', 6.99200E-2, 6.17550E-2,    0.02556, 0.00000E+0, 0.00000E+0, 0.00000E+0, 0.00000E+0
    39,   223,'1 ', 3.95200E-2, 3.50000E-2,    0.01446, 0.00000E+0, 0.00000E+0, 0.00000E+0, 0.00000E+0
    39,   231,'1 ', 1.76320E-1, 1.54705E-1,    0.25561, 0.00000E+0, 0.00000E+0, 0.00000E+0, 0.00000E+0
    40,    41,'1 ', 1.21600E-2, 2.17500E-2,    0.13987, 0.00000E+0, 0.00000E+0, 0.00000E+0, 0.00000E+0
    41,   211,'1 ', 2.28000E-1, 4.20020E-1,    0.67437, 0.00000E+0, 0.00000E+0, 0.00000E+0, 0.00000E+0
    41,   239,'1 ', 2.48976E-1, 4.56520E-1,    0.73263, 0.00000E+0, 0.00000E+0, 0.00000E+0, 0.00000E+0
    41,   241,'1 ', 6.59680E-2, 1.20605E-1,    0.77424, 0.00000E+0, 0.00000E+0, 0.00000E+0, 0.00000E+0
    42,   243,'1 ', 1.27072E-1, 1.11355E-1,    0.01150, 0.00000E+0, 0.00000E+0, 0.00000E+0, 0.00000E+0
    42,   244,'1 ', 2.34992E-1, 2.06210E-1,    0.02130, 0.00000E+0, 0.00000E+0, 0.00000E+0, 0.00000E+0
    42,   245,'1 ', 6.16208E-1, 5.40325E-1,    0.05581, 0.00000E+0, 0.00000E+0, 0.00000E+0, 0.00000E+0
    43,    44,'1 ', 1.06400E-1, 9.27550E-2,    0.03834, 0.00000E+0, 0.00000E+0, 0.00000E+0, 0.00000E+0
    43,    45,'1 ', 1.06400E-1, 9.27550E-2,    0.03834, 0.00000E+0, 0.00000E+0, 0.00000E+0, 0.00000E+0
    44,    56,'1 ', 1.41056E-1, 1.23755E-1,    0.05112, 0.00000E+0, 0.00000E+0, 0.00000E+0, 0.00000E+0
    44,    57,'1 ', 2.15840E-1, 1.89510E-1,    0.01959, 0.00000E+0, 0.00000E+0, 0.00000E+0, 0.00000E+0
    44,    80,'1 ', 2.15840E-1, 1.89510E-1,    0.01959, 0.00000E+0, 0.00000E+0, 0.00000E+0, 0.00000E+0
    45,    56,'1 ', 1.88176E-1, 1.64955E-1,    0.06816, 0.00000E+0, 0.00000E+0, 0.00000E+0, 0.00000E+0
    46,    56,'1 ', 4.71200E-2, 4.12500E-2,    0.01704, 0.00000E+0, 0.00000E+0, 0.00000E+0, 0.00000E+0
    46,    57,'1 ', 2.34080E-1, 2.06010E-1,    0.02130, 0.00000E+0, 0.00000E+0, 0.00000E+0, 0.00000E+0
    46,    80,'1 ', 5.83680E-1, 5.11520E-1,    0.05283, 0.00000E+0, 0.00000E+0, 0.00000E+0, 0.00000E+0
    47,    48,'1 ', 4.71200E-2, 4.12500E-2,    0.00426, 0.00000E+0, 0.00000E+0, 0.00000E+0, 0.00000E+0
    48,    59,'1 ', 0.00000E+0, 6.25050E-2,    0.00000, 0.00000E+0, 0.00000E+0, 0.00000E+0, 0.00000E+0
    48,   204,'1 ', 4.89440E-1, 4.29020E-1,    0.04431, 0.00000E+0, 0.00000E+0, 0.00000E+0, 0.00000E+0
    49,    50,'1 ', 4.68160E-2, 4.12500E-2,    0.01704, 0.00000E+0, 0.00000E+0, 0.00000E+0, 0.00000E+0
    49,    54,'1 ', 4.01280E-2, 3.50500E-2,    0.01448, 0.00000E+0, 0.00000E+0, 0.00000E+0, 0.00000E+0
    50,    55,'1 ', 7.05280E-2, 6.19050E-2,    0.02556, 0.00000E+0, 0.00000E+0, 0.00000E+0, 0.00000E+0
    51,    54,'1 ', 1.05792E-1, 9.28050E-2,    0.03834, 0.00000E+0, 0.00000E+0, 0.00000E+0, 0.00000E+0
    52,    54,'1 ', 2.34080E-2, 2.06500E-2,    0.00852, 0.00000E+0, 0.00000E+0, 0.00000E+0, 0.00000E+0
    53,    61,'1 ', 0.00000E+0, 6.25050E-2,    0.00000, 0.00000E+0, 0.00000E+0, 0.00000E+0, 0.00000E+0
    54,    55,'1 ', 1.15520E-2, 1.03000E-2,    0.00128, 0.00000E+0, 0.00000E+0, 0.00000E+0, 0.00000E+0
    54,    62,'1 ', 0.00000E+0, 6.25050E-2,    0.00000, 0.00000E+0, 0.00000E+0, 0.00000E+0, 0.00000E+0
    55,    56,'1 ', 4.42320E-1, 3.87765E-1,    0.04021, 0.00000E+0, 0.00000E+0, 0.00000E+0, 0.00000E+0
    56,    71,'1 ', 0.00000E+0, 6.25050E-2,    0.00000, 0.00000E+0, 0.00000E+0, 0.00000E+0, 0.00000E+0
    56,    80,'1 ', 2.46240E-1, 2.16510E-1,    0.08946, 0.00000E+0, 0.00000E+0, 0.00000E+0, 0.00000E+0
    58,    63,'1 ', 0.00000E+0, 9.90050E-2,    0.00000, 0.00000E+0, 0.00000E+0, 0.00000E+0, 0.00000E+0
    59,   216,'1 ', 5.77600E-2, 1.03505E-1,    0.16651, 0.00000E+0, 0.00000E+0, 0.00000E+0, 0.00000E+0
    61,   154,'1 ', 3.07040E-2, 7.19550E-2,    0.67545, 0.00000E+0, 0.00000E+0, 0.00000E+0, 0.00000E+0
    62,    71,'1 ', 5.28960E-2, 9.70050E-2,    0.62274, 0.00000E+0, 0.00000E+0, 0.00000E+0, 0.00000E+0
    63,    70,'1 ', 4.59040E-2, 1.06855E-1,    1.00306, 0.00000E+0, 0.00000E+0, 0.00000E+0, 0.00000E+0
    64,    67,'1 ', 1.47440E-1, 1.30005E-1,    0.05370, 0.00000E+0, 0.00000E+0, 0.00000E+0, 0.00000E+0
    64,    88,'1 ', 3.34400E-2, 2.87500E-2,    0.01194, 0.00000E+0, 0.00000E+0, 0.00000E+0, 0.00000E+0
    64,   102,'1 ', 2.34992E-1, 2.06210E-1,    0.02130, 0.00000E+0, 0.00000E+0, 0.00000E+0, 0.00000E+0
    65,    67,'1 ', 1.83920E-1, 1.60755E-1,    0.06648, 0.00000E+0, 0.00000E+0, 0.00000E+0, 0.00000E+0
    65,    68,'1 ', 7.53920E-1, 6.60030E-1,    0.06816, 0.00000E+0, 0.00000E+0, 0.00000E+0, 0.00000E+0
    65,    90,'1 ', 1.83920E-1, 1.60755E-1,    0.06648, 0.00000E+0, 0.00000E+0, 0.00000E+0, 0.00000E+0
    65,   100,'1 ', 1.68720E-1, 1.48505E-1,    0.06132, 0.00000E+0, 0.00000E+0, 0.00000E+0, 0.00000E+0
    65,   110,'1 ', 2.63568E-1, 2.31010E-1,    0.09543, 0.00000E+0, 0.00000E+0, 0.00000E+0, 0.00000E+0
    66,    67,'1 ', 1.83920E-1, 1.60755E-1,    0.06648, 0.00000E+0, 0.00000E+0, 0.00000E+0, 0.00000E+0
    66,    98,'1 ', 1.64160E-1, 1.44505E-1,    0.01491, 0.00000E+0, 0.00000E+0, 0.00000E+0, 0.00000E+0
    66,   118,'1 ', 2.67520E-1, 2.35010E-1,    0.09714, 0.00000E+0, 0.00000E+0, 0.00000E+0, 0.00000E+0
    66,   130,'1 ', 1.64464E-1, 1.44355E-1,    0.05964, 0.00000E+0, 0.00000E+0, 0.00000E+0, 0.00000E+0
    67,    91,'1 ', 4.71200E-2, 4.12500E-2,    0.01704, 0.00000E+0, 0.00000E+0, 0.00000E+0, 0.00000E+0
    68,   108,'1 ', 2.24960E-1, 1.98010E-1,    0.01158, 0.00000E+0, 0.00000E+0, 0.00000E+0, 0.00000E+0
    69,    70,'1 ', 2.12800E-2, 3.65000E-2,    0.05829, 0.00000E+0, 0.00000E+0, 0.00000E+0, 0.00000E+0
    69,   115,'1 ', 0.00000E+0, 6.25050E-2,    0.00000, 0.00000E+0, 0.00000E+0, 0.00000E+0, 0.00000E+0
    69,   154,'1 ', 6.99200E-2, 1.29505E-1,    0.20919, 0.00000E+0, 0.00000E+0, 0.00000E+0, 0.00000E+0
    70,    72,'1 ', 5.92800E-2, 1.09005E-1,    0.20980, 0.00000E+0, 0.00000E+0, 0.00000E+0, 0.00000E+0
    70,   154,'1 ', 9.12000E-2, 1.66005E-1,    0.07992, 0.00000E+0, 0.00000E+0, 0.00000E+0, 0.00000E+0
    70,   232,'1 ', 0.00000E+0, 6.25050E-2,    0.00000, 0.00000E+0, 0.00000E+0, 0.00000E+0, 0.00000E+0
    70,   238,'1 ', 1.58080E-1, 2.90515E-1,    0.13987, 0.00000E+0, 0.00000E+0, 0.00000E+0, 0.00000E+0
    71,    72,'1 ', 3.19200E-2, 1.18755E-1,    1.14179, 0.00000E+0, 0.00000E+0, 0.00000E+0, 0.00000E+0
    72,    73,'1 ', 1.97600E-2, 3.62500E-2,    0.23311, 0.00000E+0, 0.00000E+0, 0.00000E+0, 0.00000E+0
    72,    84,'1 ', 0.00000E+0, 6.25050E-2,    0.00000, 0.00000E+0, 0.00000E+0, 0.00000E+0, 0.00000E+0
    73,    74,'1 ', 0.00000E+0, 6.25050E-2,    0.00000, 0.00000E+0, 0.00000E+0, 0.00000E+0, 0.00000E+0
    74,    86,'1 ', 2.69040E-1, 1.17655E-1,    0.04854, 0.00000E+0, 0.00000E+0, 0.00000E+0, 0.00000E+0
    74,    88,'1 ', 3.31360E-2, 2.88500E-2,    0.01193, 0.00000E+0, 0.00000E+0, 0.00000E+0, 0.00000E+0
    74,   104,'1 ', 1.05792E-1, 9.28050E-2,    0.03834, 0.00000E+0, 0.00000E+0, 0.00000E+0, 0.00000E+0
    74,   246,'1 ', 3.05824E-1, 2.68110E-1,    0.11077, 0.00000E+0, 0.00000E+0, 0.00000E+0, 0.00000E+0
    75,    76,'1 ', 6.99200E-2, 6.17550E-2,    0.02556, 0.00000E+0, 0.00000E+0, 0.00000E+0, 0.00000E+0
    75,    91,'1 ', 5.92800E-2, 5.15000E-2,    0.02130, 0.00000E+0, 0.00000E+0, 0.00000E+0, 0.00000E+0
    77,   219,'1 ', 8.20800E-2, 7.22050E-2,    0.02982, 0.00000E+0, 0.00000E+0, 0.00000E+0, 0.00000E+0
    78,    84,'1 ', 8.05600E-2, 7.00050E-2,    0.02898, 0.00000E+0, 0.00000E+0, 0.00000E+0, 0.00000E+0
    78,    91,'1 ', 7.60000E-2, 6.60050E-2,    0.02724, 0.00000E+0, 0.00000E+0, 0.00000E+0, 0.00000E+0
    79,    88,'1 ', 1.10960E-1, 9.70050E-2,    0.04002, 0.00000E+0, 0.00000E+0, 0.00000E+0, 0.00000E+0
    80,    82,'1 ', 4.46880E-2, 3.92000E-2,    0.14570, 0.00000E+0, 0.00000E+0, 0.00000E+0, 0.00000E+0
    80,    86,'1 ', 1.36800E-1, 1.19505E-1,    0.04944, 0.00000E+0, 0.00000E+0, 0.00000E+0, 0.00000E+0
    81,    97,'1 ', 7.05280E-2, 6.19050E-2,    0.02556, 0.00000E+0, 0.00000E+0, 0.00000E+0, 0.00000E+0
    81,   101,'1 ', 7.05280E-2, 6.19050E-2,    0.02556, 0.00000E+0, 0.00000E+0, 0.00000E+0, 0.00000E+0
    82,    83,'1 ', 9.42400E-2, 8.25050E-2,    0.03408, 0.00000E+0, 0.00000E+0, 0.00000E+0, 0.00000E+0
    82,    92,'1 ', 8.20800E-2, 7.22050E-2,    0.02982, 0.00000E+0, 0.00000E+0, 0.00000E+0, 0.00000E+0
    83,    95,'1 ', 5.89760E-2, 5.15500E-2,    0.02130, 0.00000E+0, 0.00000E+0, 0.00000E+0, 0.00000E+0
    83,   102,'1 ', 1.92736E-1, 1.69105E-1,    0.01747, 0.00000E+0, 0.00000E+0, 0.00000E+0, 0.00000E+0
    83,   103,'1 ', 4.71200E-2, 4.12500E-2,    0.01704, 0.00000E+0, 0.00000E+0, 0.00000E+0, 0.00000E+0
    83,   104,'1 ', 1.05792E-1, 9.28050E-2,    0.03834, 0.00000E+0, 0.00000E+0, 0.00000E+0, 0.00000E+0
    84,    89,'1 ', 1.06400E-1, 9.27550E-2,    0.03834, 0.00000E+0, 0.00000E+0, 0.00000E+0, 0.00000E+0
    84,    94,'1 ', 2.06720E-1, 1.81510E-1,    0.01875, 0.00000E+0, 0.00000E+0, 0.00000E+0, 0.00000E+0
    85,    94,'1 ', 9.42400E-2, 8.25050E-2,    0.03408, 0.00000E+0, 0.00000E+0, 0.00000E+0, 0.00000E+0
    85,   103,'1 ', 4.71200E-2, 4.12500E-2,    0.01584, 0.00000E+0, 0.00000E+0, 0.00000E+0, 0.00000E+0
    87,    96,'1 ', 7.05280E-2, 6.19050E-2,    0.02556, 0.00000E+0, 0.00000E+0, 0.00000E+0, 0.00000E+0
    87,   100,'1 ', 8.20800E-2, 7.22050E-2,    0.02982, 0.00000E+0, 0.00000E+0, 0.00000E+0, 0.00000E+0
    88,    94,'1 ', 9.57600E-2, 8.45050E-2,    0.03492, 0.00000E+0, 0.00000E+0, 0.00000E+0, 0.00000E+0
    89,    93,'1 ', 8.20800E-2, 7.22550E-2,    0.02982, 0.00000E+0, 0.00000E+0, 0.00000E+0, 0.00000E+0
    90,    96,'1 ', 7.60000E-2, 6.60050E-2,    0.02724, 0.00000E+0, 0.00000E+0, 0.00000E+0, 0.00000E+0
    90,    97,'1 ', 1.10960E-1, 9.70050E-2,    0.04002, 0.00000E+0, 0.00000E+0, 0.00000E+0, 0.00000E+0
    91,    97,'1 ', 2.94880E-1, 2.60010E-1,    0.02685, 0.00000E+0, 0.00000E+0, 0.00000E+0, 0.00000E+0
    92,    95,'1 ', 5.89760E-2, 5.15500E-2,    0.02130, 0.00000E+0, 0.00000E+0, 0.00000E+0, 0.00000E+0
    96,   101,'1 ', 2.11584E-1, 1.85610E-1,    0.07668, 0.00000E+0, 0.00000E+0, 0.00000E+0, 0.00000E+0
    97,    98,'1 ', 2.58400E-1, 2.27010E-1,    0.02343, 0.00000E+0, 0.00000E+0, 0.00000E+0, 0.00000E+0
    97,   236,'1 ', 0.00000E+0, 6.25050E-2,    0.00000, 0.00000E+0, 0.00000E+0, 0.00000E+0, 0.00000E+0
    99,   101,'1 ', 9.88000E-2, 8.66550E-2,    0.03578, 0.00000E+0, 0.00000E+0, 0.00000E+0, 0.00000E+0
   105,   107,'1 ', 1.52912E-1, 1.34055E-1,    0.05538, 0.00000E+0, 0.00000E+0, 0.00000E+0, 0.00000E+0
   105,   245,'1 ', 1.62336E-1, 1.42305E-1,    0.05879, 0.00000E+0, 0.00000E+0, 0.00000E+0, 0.00000E+0
   106,   107,'1 ', 3.52640E-2, 3.09500E-2,    0.01278, 0.00000E+0, 0.00000E+0, 0.00000E+0, 0.00000E+0
   106,   123,'1 ', 1.22208E-1, 1.07205E-1,    0.04430, 0.00000E+0, 0.00000E+0, 0.00000E+0, 0.00000E+0
   106,   130,'1 ', 9.42400E-2, 8.25050E-2,    0.03408, 0.00000E+0, 0.00000E+0, 0.00000E+0, 0.00000E+0
   108,   109,'1 ', 3.28320E-1, 2.88510E-1,    0.02982, 0.00000E+0, 0.00000E+0, 0.00000E+0, 0.00000E+0
   109,   110,'1 ', 2.93968E-1, 2.57760E-1,    0.10651, 0.00000E+0, 0.00000E+0, 0.00000E+0, 0.00000E+0
   109,   121,'1 ', 5.16800E-1, 4.53520E-1,    0.04686, 0.00000E+0, 0.00000E+0, 0.00000E+0, 0.00000E+0
   109,   131,'1 ', 0.00000E+0, 6.25050E-2,    0.00000, 0.00000E+0, 0.00000E+0, 0.00000E+0, 0.00000E+0
   109,   132,'1 ', 9.08960E-2, 7.97550E-2,    0.07413, 0.00000E+0, 0.00000E+0, 0.00000E+0, 0.00000E+0
   111,   121,'1 ', 2.76640E-1, 2.43510E-1,    0.02514, 0.00000E+0, 0.00000E+0, 0.00000E+0, 0.00000E+0
   111,   128,'1 ', 4.71200E-2, 4.12500E-2,    0.01704, 0.00000E+0, 0.00000E+0, 0.00000E+0, 0.00000E+0
   112,   122,'1 ', 1.69328E-1, 1.48505E-1,    0.01534, 0.00000E+0, 0.00000E+0, 0.00000E+0, 0.00000E+0
   113,   114,'1 ', 8.66400E-2, 7.62550E-2,    0.03150, 0.00000E+0, 0.00000E+0, 0.00000E+0, 0.00000E+0
   113,   126,'1 ', 3.05824E-1, 2.68110E-1,    0.02769, 0.00000E+0, 0.00000E+0, 0.00000E+0, 0.00000E+0
   113,   127,'1 ', 1.05792E-1, 9.28050E-2,    0.03834, 0.00000E+0, 0.00000E+0, 0.00000E+0, 0.00000E+0
   113,   129,'1 ', 2.82720E-1, 2.47510E-1,    0.02556, 0.00000E+0, 0.00000E+0, 0.00000E+0, 0.00000E+0
   114,   125,'1 ', 9.42400E-2, 8.25050E-2,    0.03408, 0.00000E+0, 0.00000E+0, 0.00000E+0, 0.00000E+0
   114,   130,'1 ', 6.99200E-2, 6.17550E-2,    0.02556, 0.00000E+0, 0.00000E+0, 0.00000E+0, 0.00000E+0
   115,   118,'1 ', 1.36800E-1, 1.19505E-1,    0.01483, 0.00000E+0, 0.00000E+0, 0.00000E+0, 0.00000E+0
   115,   121,'1 ', 4.10400E-2, 3.61000E-2,    0.05964, 0.00000E+0, 0.00000E+0, 0.00000E+0, 0.00000E+0
   116,   128,'1 ', 9.42400E-2, 8.25050E-2,    0.03408, 0.00000E+0, 0.00000E+0, 0.00000E+0, 0.00000E+0
   116,   229,'1 ', 5.62400E-2, 4.95000E-2,    0.02046, 0.00000E+0, 0.00000E+0, 0.00000E+0, 0.00000E+0
   117,   119,'1 ', 3.49600E-2, 3.10000E-2,    0.04260, 0.00000E+0, 0.00000E+0, 0.00000E+0, 0.00000E+0
   118,   129,'1 ', 2.43200E-2, 2.05000E-2,    0.00213, 0.00000E+0, 0.00000E+0, 0.00000E+0, 0.00000E+0
   118,   162,'1 ', 5.41120E-1, 4.74520E-1,    0.04899, 0.00000E+0, 0.00000E+0, 0.00000E+0, 0.00000E+0
   118,   232,'1 ', 3.34400E-2, 2.87500E-2,    0.01194, 0.00000E+0, 0.00000E+0, 0.00000E+0, 0.00000E+0
   119,   229,'1 ', 4.68160E-2, 4.12500E-2,    0.01704, 0.00000E+0, 0.00000E+0, 0.00000E+0, 0.00000E+0
   120,   126,'1 ', 1.88176E-1, 1.65005E-1,    0.01704, 0.00000E+0, 0.00000E+0, 0.00000E+0, 0.00000E+0
   121,   122,'1 ', 9.88000E-2, 8.66550E-2,    0.03578, 0.00000E+0, 0.00000E+0, 0.00000E+0, 0.00000E+0
   121,   162,'1 ', 1.97296E-1, 1.73260E-1,    0.07157, 0.00000E+0, 0.00000E+0, 0.00000E+0, 0.00000E+0
   121,   229,'1 ', 5.40816E-1, 4.74320E-1,    0.04899, 0.00000E+0, 0.00000E+0, 0.00000E+0, 0.00000E+0
   124,   125,'1 ', 1.13088E-1, 9.90050E-2,    0.04090, 0.00000E+0, 0.00000E+0, 0.00000E+0, 0.00000E+0
   125,   130,'1 ', 9.42400E-2, 8.25050E-2,    0.03408, 0.00000E+0, 0.00000E+0, 0.00000E+0, 0.00000E+0
   126,   129,'1 ', 1.41056E-1, 1.23755E-1,    0.05112, 0.00000E+0, 0.00000E+0, 0.00000E+0, 0.00000E+0
   127,   129,'1 ', 1.52912E-1, 1.34055E-1,    0.05538, 0.00000E+0, 0.00000E+0, 0.00000E+0, 0.00000E+0
   129,   232,'1 ', 2.28000E-2, 2.05000E-2,    0.00852, 0.00000E+0, 0.00000E+0, 0.00000E+0, 0.00000E+0
   132,   139,'1 ', 6.53600E-2, 5.77550E-2,    0.02388, 0.00000E+0, 0.00000E+0, 0.00000E+0, 0.00000E+0
   132,   140,'1 ', 2.88800E-2, 2.47500E-2,    0.01020, 0.00000E+0, 0.00000E+0, 0.00000E+0, 0.00000E+0
   132,   149,'1 ', 5.16800E-2, 4.52500E-2,    0.01872, 0.00000E+0, 0.00000E+0, 0.00000E+0, 0.00000E+0
   133,   139,'1 ', 3.34400E-2, 2.87500E-2,    0.01194, 0.00000E+0, 0.00000E+0, 0.00000E+0, 0.00000E+0
   133,   182,'1 ', 3.64800E-2, 3.30000E-2,    0.00342, 0.00000E+0, 0.00000E+0, 0.00000E+0, 0.00000E+0
   133,   183,'1 ', 6.08000E-3, 4.00000E-3,    0.00042, 0.00000E+0, 0.00000E+0, 0.00000E+0, 0.00000E+0
   134,   146,'1 ', 1.36800E-2, 1.22500E-2,    0.00510, 0.00000E+0, 0.00000E+0, 0.00000E+0, 0.00000E+0
   134,   147,'1 ', 3.04000E-2, 2.67500E-2,    0.01110, 0.00000E+0, 0.00000E+0, 0.00000E+0, 0.00000E+0
   136,   138,'1 ', 1.21600E-2, 1.02500E-2,    0.00426, 0.00000E+0, 0.00000E+0, 0.00000E+0, 0.00000E+0
   136,   141,'1 ', 3.34400E-2, 2.87500E-2,    0.01194, 0.00000E+0, 0.00000E+0, 0.00000E+0, 0.00000E+0
   136,   229,'1 ', 6.99200E-2, 6.17550E-2,    0.02556, 0.00000E+0, 0.00000E+0, 0.00000E+0, 0.00000E+0
   137,   140,'1 ', 5.16800E-2, 4.52500E-2,    0.01872, 0.00000E+0, 0.00000E+0, 0.00000E+0, 0.00000E+0
   137,   141,'1 ', 2.12800E-2, 1.85000E-2,    0.00768, 0.00000E+0, 0.00000E+0, 0.00000E+0, 0.00000E+0
   138,   141,'1 ', 9.42400E-3, 8.25000E-3,    0.00341, 0.00000E+0, 0.00000E+0, 0.00000E+0, 0.00000E+0
   138,   151,'1 ', 1.67200E-2, 1.45000E-2,    0.00594, 0.00000E+0, 0.00000E+0, 0.00000E+0, 0.00000E+0
   139,   145,'1 ', 1.67200E-2, 1.45000E-2,    0.00594, 0.00000E+0, 0.00000E+0, 0.00000E+0, 0.00000E+0
   139,   152,'1 ', 2.12800E-2, 1.85000E-2,    0.00768, 0.00000E+0, 0.00000E+0, 0.00000E+0, 0.00000E+0
   139,   240,'1 ', 0.00000E+0, 6.25050E-2,    0.00000, 0.00000E+0, 0.00000E+0, 0.00000E+0, 0.00000E+0
   140,   143,'1 ', 2.88800E-2, 2.47500E-3,    0.01020, 0.00000E+0, 0.00000E+0, 0.00000E+0, 0.00000E+0
   140,   144,'1 ', 2.58400E-2, 2.27500E-2,    0.00936, 0.00000E+0, 0.00000E+0, 0.00000E+0, 0.00000E+0
   140,   154,'1 ', 0.00000E+0, 6.25050E-2,    0.00000, 0.00000E+0, 0.00000E+0, 0.00000E+0, 0.00000E+0
   141,   148,'1 ', 9.42400E-3, 8.25000E-3,    0.00341, 0.00000E+0, 0.00000E+0, 0.00000E+0, 0.00000E+0
   141,   151,'1 ', 4.25600E-2, 3.70000E-2,    0.15361, 0.00000E+0, 0.00000E+0, 0.00000E+0, 0.00000E+0
   141,   155,'1 ', 0.00000E+0, 6.25050E-2,    0.00000, 0.00000E+0, 0.00000E+0, 0.00000E+0, 0.00000E+0
   142,   145,'1 ', 1.67200E-2, 1.45000E-2,    0.00594, 0.00000E+0, 0.00000E+0, 0.00000E+0, 0.00000E+0
   142,   152,'1 ', 7.60000E-3, 6.25000E-3,    0.00258, 0.00000E+0, 0.00000E+0, 0.00000E+0, 0.00000E+0
   143,   144,'1 ', 1.36800E-2, 1.22500E-2,    0.00510, 0.00000E+0, 0.00000E+0, 0.00000E+0, 0.00000E+0
   146,   148,'1 ', 1.67200E-2, 1.45000E-2,    0.00594, 0.00000E+0, 0.00000E+0, 0.00000E+0, 0.00000E+0
   147,   150,'1 ', 2.28000E-2, 2.05000E-2,    0.00852, 0.00000E+0, 0.00000E+0, 0.00000E+0, 0.00000E+0
   147,   153,'1 ', 1.21600E-2, 1.02500E-2,    0.00426, 0.00000E+0, 0.00000E+0, 0.00000E+0, 0.00000E+0
   154,   155,'1 ', 4.56000E-3, 1.30000E-2,    0.13171, 0.00000E+0, 0.00000E+0, 0.00000E+0, 0.00000E+0
   154,   240,'1 ', 4.56000E-3, 9.75000E-3,    0.09978, 0.00000E+0, 0.00000E+0, 0.00000E+0, 0.00000E+0
   156,   158,'1 ', 1.41360E-1, 1.23755E-1,    0.20400, 0.00000E+0, 0.00000E+0, 0.00000E+0, 0.00000E+0
   157,   162,'1 ', 5.83680E-1, 5.11520E-1,    0.05283, 0.00000E+0, 0.00000E+0, 0.00000E+0, 0.00000E+0
   157,   175,'1 ', 7.05280E-1, 6.18525E-1,    0.06390, 0.00000E+0, 0.00000E+0, 0.00000E+0, 0.00000E+0
   157,   176,'1 ', 1.25552E-1, 1.10005E-1,    0.10225, 0.00000E+0, 0.00000E+0, 0.00000E+0, 0.00000E+0
   157,   177,'1 ', 6.71840E-1, 5.90025E-1,    0.06093, 0.00000E+0, 0.00000E+0, 0.00000E+0, 0.00000E+0
   157,   180,'1 ', 0.00000E+0, 6.25050E-2,    0.00000, 0.00000E+0, 0.00000E+0, 0.00000E+0, 0.00000E+0
   158,   160,'1 ', 5.56320E-1, 4.86520E-1,    0.08028, 0.00000E+0, 0.00000E+0, 0.00000E+0, 0.00000E+0
   158,   181,'1 ', 3.98240E-1, 3.50515E-1,    0.06621, 0.00000E+0, 0.00000E+0, 0.00000E+0, 0.00000E+0
   159,   199,'1 ', 1.12480E-1, 9.90050E-2,    0.04092, 0.00000E+0, 0.00000E+0, 0.00000E+0, 0.00000E+0
   160,   161,'1 ', 1.45920E-1, 1.27755E-1,    0.05280, 0.00000E+0, 0.00000E+0, 0.00000E+0, 0.00000E+0
   160,   162,'1 ', 3.10080E-1, 2.72260E-1,    0.11244, 0.00000E+0, 0.00000E+0, 0.00000E+0, 0.00000E+0
   160,   164,'1 ', 1.47440E-1, 1.30005E-1,    0.05370, 0.00000E+0, 0.00000E+0, 0.00000E+0, 0.00000E+0
   160,   179,'1 ', 0.00000E+0, 6.25050E-2,    0.00000, 0.00000E+0, 0.00000E+0, 0.00000E+0, 0.00000E+0
   160,   230,'1 ', 7.29600E-2, 6.25050E-2,    0.02580, 0.00000E+0, 0.00000E+0, 0.00000E+0, 0.00000E+0
   161,   162,'1 ', 3.98240E-1, 3.50515E-1,    0.03621, 0.00000E+0, 0.00000E+0, 0.00000E+0, 0.00000E+0
   161,   176,'1 ', 8.63360E-2, 7.56050E-2,    0.07029, 0.00000E+0, 0.00000E+0, 0.00000E+0, 0.00000E+0
   163,   164,'1 ', 3.95200E-1, 3.46515E-1,    0.03579, 0.00000E+0, 0.00000E+0, 0.00000E+0, 0.00000E+0
   163,   167,'1 ', 4.46880E-1, 3.91865E-1,    0.04047, 0.00000E+0, 0.00000E+0, 0.00000E+0, 0.00000E+0
   165,   170,'1 ', 2.64480E-1, 2.31010E-1,    0.02385, 0.00000E+0, 0.00000E+0, 0.00000E+0, 0.00000E+0
   165,   171,'1 ', 9.60640E-1, 8.41535E-1,    0.08691, 0.00000E+0, 0.00000E+0, 0.00000E+0, 0.00000E+0
   165,   174,'1 ', 9.97120E-1, 8.74540E-1,    0.09030, 0.00000E+0, 0.00000E+0, 0.00000E+0, 0.00000E+0
   166,   167,'1 ', 1.41056E-1, 1.23755E-1,    0.05112, 0.00000E+0, 0.00000E+0, 0.00000E+0, 0.00000E+0
   166,   173,'1 ', 4.23168E-1, 3.71215E-1,    0.03834, 0.00000E+0, 0.00000E+0, 0.00000E+0, 0.00000E+0
   166,   175,'1 ', 5.87936E-1, 5.15575E-1,    0.21301, 0.00000E+0, 0.00000E+0, 0.00000E+0, 0.00000E+0
   168,   169,'1 ', 5.16800E-1, 4.53520E-1,    0.15620, 0.00000E+0, 0.00000E+0, 0.00000E+0, 0.00000E+0
   168,   170,'1 ', 1.88480E-1, 1.65005E-1,    0.04770, 0.00000E+0, 0.00000E+0, 0.00000E+0, 0.00000E+0
   168,   171,'1 ', 4.65120E-1, 4.08520E-1,    0.04218, 0.00000E+0, 0.00000E+0, 0.00000E+0, 0.00000E+0
   168,   178,'1 ', 3.61760E-1, 3.17515E-1,    0.13122, 0.00000E+0, 0.00000E+0, 0.00000E+0, 0.00000E+0
   169,   170,'1 ', 1.88480E-1, 1.65005E-1,    0.01704, 0.00000E+0, 0.00000E+0, 0.00000E+0, 0.00000E+0
   172,   181,'1 ', 3.29232E-1, 2.88715E-1,    0.02982, 0.00000E+0, 0.00000E+0, 0.00000E+0, 0.00000E+0
   173,   174,'1 ', 3.29232E-1, 2.88715E-1,    0.02982, 0.00000E+0, 0.00000E+0, 0.00000E+0, 0.00000E+0
   175,   177,'1 ', 7.50880E-1, 6.59530E-1,    0.06816, 0.00000E+0, 0.00000E+0, 0.00000E+0, 0.00000E+0
   179,   238,'1 ', 9.12000E-3, 1.55000E-2,    0.09990, 0.00000E+0, 0.00000E+0, 0.00000E+0, 0.00000E+0
   181,   230,'1 ', 7.29600E-2, 6.25050E-2,    0.02580, 0.00000E+0, 0.00000E+0, 0.00000E+0, 0.00000E+0
   182,   183,'1 ', 3.34400E-2, 2.90000E-2,    0.00297, 0.00000E+0, 0.00000E+0, 0.00000E+0, 0.00000E+0
   182,   194,'1 ', 5.62400E-2, 4.95000E-2,    0.02046, 0.00000E+0, 0.00000E+0, 0.00000E+0, 0.00000E+0
   182,   228,'1 ', 1.18560E-1, 1.03005E-1,    0.01065, 0.00000E+0, 0.00000E+0, 0.00000E+0, 0.00000E+0
   183,   194,'1 ', 1.31632E-1, 1.15505E-1,    0.01193, 0.00000E+0, 0.00000E+0, 0.00000E+0, 0.00000E+0
   184,   191,'1 ', 3.19200E-1, 2.80510E-1,    0.02898, 0.00000E+0, 0.00000E+0, 0.00000E+0, 0.00000E+0
   184,   197,'1 ', 2.34992E-1, 2.06210E-1,    0.02130, 0.00000E+0, 0.00000E+0, 0.00000E+0, 0.00000E+0
   185,   197,'1 ', 2.11584E-1, 1.85610E-1,    0.07668, 0.00000E+0, 0.00000E+0, 0.00000E+0, 0.00000E+0
   185,   209,'1 ', 0.00000E+0, 6.25050E-2,    0.00000, 0.00000E+0, 0.00000E+0, 0.00000E+0, 0.00000E+0
   185,   219,'1 ', 3.86080E-1, 3.38015E-1,    0.03492, 0.00000E+0, 0.00000E+0, 0.00000E+0, 0.00000E+0
   186,   187,'1 ', 1.94560E-1, 1.71255E-1,    0.07074, 0.00000E+0, 0.00000E+0, 0.00000E+0, 0.00000E+0
   186,   188,'1 ', 4.40800E-1, 3.87515E-1,    0.04005, 0.00000E+0, 0.00000E+0, 0.00000E+0, 0.00000E+0
   187,   189,'1 ', 1.94560E-1, 1.71255E-1,    0.01769, 0.00000E+0, 0.00000E+0, 0.00000E+0, 0.00000E+0
   187,   191,'1 ', 2.11280E-1, 1.85510E-1,    0.07668, 0.00000E+0, 0.00000E+0, 0.00000E+0, 0.00000E+0
   187,   210,'1 ', 0.00000E+0, 6.25050E-2,    0.00000, 0.00000E+0, 0.00000E+0, 0.00000E+0, 0.00000E+0
   188,   190,'1 ', 4.52960E-1, 3.96015E-1,    0.04089, 0.00000E+0, 0.00000E+0, 0.00000E+0, 0.00000E+0
   190,   211,'1 ', 0.00000E+0, 6.25050E-2,    0.00000, 0.00000E+0, 0.00000E+0, 0.00000E+0, 0.00000E+0
   190,   222,'1 ', 9.42400E-2, 8.25050E-2,    0.03408, 0.00000E+0, 0.00000E+0, 0.00000E+0, 0.00000E+0
   190,   223,'1 ', 2.82720E-1, 2.47510E-1,    0.02556, 0.00000E+0, 0.00000E+0, 0.00000E+0, 0.00000E+0
   190,   227,'1 ', 1.39840E-1, 1.23505E-1,    0.01278, 0.00000E+0, 0.00000E+0, 0.00000E+0, 0.00000E+0
   191,   208,'1 ', 7.05280E-2, 6.19050E-2,    0.02556, 0.00000E+0, 0.00000E+0, 0.00000E+0, 0.00000E+0
   191,   212,'1 ', 0.00000E+0, 6.25050E-2,    0.00000, 0.00000E+0, 0.00000E+0, 0.00000E+0, 0.00000E+0
   192,   193,'1 ', 2.15840E-1, 1.89510E-1,    0.01959, 0.00000E+0, 0.00000E+0, 0.00000E+0, 0.00000E+0
   193,   194,'1 ', 2.15840E-1, 1.89510E-1,    0.01959, 0.00000E+0, 0.00000E+0, 0.00000E+0, 0.00000E+0
   193,   197,'1 ', 5.68480E-2, 4.95000E-2,    0.04599, 0.00000E+0, 0.00000E+0, 0.00000E+0, 0.00000E+0
   194,   195,'1 ', 3.76960E-1, 3.30015E-1,    0.03408, 0.00000E+0, 0.00000E+0, 0.00000E+0, 0.00000E+0
   194,   198,'1 ', 1.64160E-1, 1.44255E-1,    0.05964, 0.00000E+0, 0.00000E+0, 0.00000E+0, 0.00000E+0
   194,   213,'1 ', 0.00000E+0, 6.25050E-2,    0.00000, 0.00000E+0, 0.00000E+0, 0.00000E+0, 0.00000E+0
   194,   220,'1 ', 1.91520E-1, 1.69005E-1,    0.05482, 0.00000E+0, 0.00000E+0, 0.00000E+0, 0.00000E+0
   194,   228,'1 ', 2.34080E-2, 2.06500E-2,    0.00852, 0.00000E+0, 0.00000E+0, 0.00000E+0, 0.00000E+0
   195,   196,'1 ', 1.62640E-1, 1.42255E-1,    0.05880, 0.00000E+0, 0.00000E+0, 0.00000E+0, 0.00000E+0
   195,   197,'1 ', 8.96800E-2, 7.82550E-2,    0.03240, 0.00000E+0, 0.00000E+0, 0.00000E+0, 0.00000E+0
   195,   220,'1 ', 1.88480E-1, 1.65005E-1,    0.01704, 0.00000E+0, 0.00000E+0, 0.00000E+0, 0.00000E+0
   196,   219,'1 ', 1.90000E-1, 1.67005E-1,    0.06900, 0.00000E+0, 0.00000E+0, 0.00000E+0, 0.00000E+0
   199,   200,'1 ', 1.39840E-1, 1.23505E-1,    0.01278, 0.00000E+0, 0.00000E+0, 0.00000E+0, 0.00000E+0
   199,   214,'1 ', 0.00000E+0, 6.25050E-2,    0.00000, 0.00000E+0, 0.00000E+0, 0.00000E+0, 0.00000E+0
   200,   201,'1 ', 2.64480E-1, 2.31010E-1,    0.02385, 0.00000E+0, 0.00000E+0, 0.00000E+0, 0.00000E+0
   201,   226,'1 ', 1.41360E-1, 1.23755E-1,    0.05112, 0.00000E+0, 0.00000E+0, 0.00000E+0, 0.00000E+0
   201,   231,'1 ', 3.99760E-1, 3.50550E-1,    0.14484, 0.00000E+0, 0.00000E+0, 0.00000E+0, 0.00000E+0
   202,   203,'1 ', 3.05520E-1, 2.68010E-1,    0.11077, 0.00000E+0, 0.00000E+0, 0.00000E+0, 0.00000E+0
   202,   225,'1 ', 1.79360E-1, 1.56505E-1,    0.01620, 0.00000E+0, 0.00000E+0, 0.00000E+0, 0.00000E+0
   203,   224,'1 ', 3.28320E-1, 2.88510E-1,    0.02982, 0.00000E+0, 0.00000E+0, 0.00000E+0, 0.00000E+0
   204,   207,'1 ', 1.68416E-1, 3.08715E-1,    0.04533, 0.00000E+0, 0.00000E+0, 0.00000E+0, 0.00000E+0
   204,   216,'1 ', 0.00000E+0, 6.25050E-2,    0.00000, 0.00000E+0, 0.00000E+0, 0.00000E+0, 0.00000E+0
   205,   217,'1 ', 0.00000E+0, 6.25050E-2,    0.00000, 0.00000E+0, 0.00000E+0, 0.00000E+0, 0.00000E+0
   205,   225,'1 ', 3.07040E-1, 2.68010E-1,    0.02769, 0.00000E+0, 0.00000E+0, 0.00000E+0, 0.00000E+0
   206,   207,'1 ', 3.52640E-1, 3.09515E-1,    0.03195, 0.00000E+0, 0.00000E+0, 0.00000E+0, 0.00000E+0
   209,   212,'1 ', 9.12000E-2, 1.66005E-1,    0.26641, 0.00000E+0, 0.00000E+0, 0.00000E+0, 0.00000E+0
   209,   213,'1 ', 1.03056E-1, 1.88860E-1,    0.30304, 0.00000E+0, 0.00000E+0, 0.00000E+0, 0.00000E+0
   210,   221,'1 ', 6.80960E-2, 1.24505E-1,    0.79923, 0.00000E+0, 0.00000E+0, 0.00000E+0, 0.00000E+0
   211,   212,'1 ', 1.87264E-1, 3.43415E-1,    0.55114, 0.00000E+0, 0.00000E+0, 0.00000E+0, 0.00000E+0
   211,   217,'1 ', 8.20800E-2, 1.50505E-1,    0.24142, 0.00000E+0, 0.00000E+0, 0.00000E+0, 0.00000E+0
   211,   221,'1 ', 3.10080E-2, 5.70500E-2,    0.09158, 0.00000E+0, 0.00000E+0, 0.00000E+0, 0.00000E+0
   212,   213,'1 ', 7.60000E-2, 1.37005E-1,    0.21979, 0.00000E+0, 0.00000E+0, 0.00000E+0, 0.00000E+0
   213,   214,'1 ', 1.07616E-1, 1.97160E-1,    0.31636, 0.00000E+0, 0.00000E+0, 0.00000E+0, 0.00000E+0
   213,   215,'1 ', 2.24960E-1, 4.10020E-1,    0.65772, 0.00000E+0, 0.00000E+0, 0.00000E+0, 0.00000E+0
   213,   235,'1 ', 2.73600E-2, 5.20000E-2,    0.08325, 0.00000E+0, 0.00000E+0, 0.00000E+0, 0.00000E+0
   214,   221,'1 ', 1.41664E-1, 2.59410E-1,    0.41627, 0.00000E+0, 0.00000E+0, 0.00000E+0, 0.00000E+0
   215,   221,'1 ', 2.24960E-2, 4.15000E-2,    0.06660, 0.00000E+0, 0.00000E+0, 0.00000E+0, 0.00000E+0
   215,   239,'1 ', 1.52000E-3, 2.60000E-3,    0.01665, 0.00000E+0, 0.00000E+0, 0.00000E+0, 0.00000E+0
   216,   217,'1 ', 6.99200E-2, 1.29505E-1,    0.20812, 0.00000E+0, 0.00000E+0, 0.00000E+0, 0.00000E+0
   216,   218,'1 ', 1.97600E-2, 3.63000E-2,    0.05828, 0.00000E+0, 0.00000E+0, 0.00000E+0, 0.00000E+0
   221,   222,'1 ', 0.00000E+0, 6.25050E-2,    0.00000, 0.00000E+0, 0.00000E+0, 0.00000E+0, 0.00000E+0
   223,   227,'1 ', 3.28320E-1, 2.88510E-1,    0.02982, 0.00000E+0, 0.00000E+0, 0.00000E+0, 0.00000E+0
   229,   233,'1 ', 0.00000E+0, 6.25050E-2,    0.00000, 0.00000E+0, 0.00000E+0, 0.00000E+0, 0.00000E+0
   230,   238,'1 ', 0.00000E+0, 6.25050E-2,    0.00000, 0.00000E+0, 0.00000E+0, 0.00000E+0, 0.00000E+0
   231,   239,'1 ', 0.00000E+0, 6.25050E-2,    0.00000, 0.00000E+0, 0.00000E+0, 0.00000E+0, 0.00000E+0
   233,   234,'1 ', 1.03360E-1, 1.86510E-1,    0.29971, 0.00000E+0, 0.00000E+0, 0.00000E+0, 0.00000E+0
   233,   235,'1 ', 1.52000E-2, 2.75000E-2,    0.17647, 0.00000E+0, 0.00000E+0, 0.00000E+0, 0.00000E+0
   233,   238,'1 ', 1.22816E-1, 2.25160E-1,    0.36132, 0.00000E+0, 0.00000E+0, 0.00000E+0, 0.00000E+0
   233,   239,'1 ', 2.23440E-1, 2.66510E-1,    0.65770, 0.00000E+0, 0.00000E+0, 0.00000E+0, 0.00000E+0
   234,   237,'1 ', 5.32000E-2, 9.65050E-2,    0.61941, 0.00000E+0, 0.00000E+0, 0.00000E+0, 0.00000E+0
   234,   238,'1 ', 1.45920E-1, 2.68510E-1,    0.43124, 0.00000E+0, 0.00000E+0, 0.00000E+0, 0.00000E+0
   234,   239,'1 ', 1.42880E-1, 2.59510E-1,    0.41627, 0.00000E+0, 0.00000E+0, 0.00000E+0, 0.00000E+0
   235,   236,'1 ', 1.75408E-1, 3.21665E-1,    0.51617, 0.00000E+0, 0.00000E+0, 0.00000E+0, 0.00000E+0
   235,   240,'1 ', 7.60000E-3, 1.82500E-2,    0.18355, 0.00000E+0, 0.00000E+0, 0.00000E+0, 0.00000E+0
   239,   241,'1 ', 6.59680E-2, 1.20605E-1,    0.77424, 0.00000E+0, 0.00000E+0, 0.00000E+0, 0.00000E+0
   242,   243,'1 ', 0.00000E+0, 1.98408E+0,    0.00000, 0.00000E+0, 0.00000E+0, 0.00000E+0, 0.00000E+0
   243,   245,'1 ', 5.17408E-1, 4.53720E-1,    0.04686, 0.00000E+0, 0.00000E+0, 0.00000E+0, 0.00000E+0
   244,   245,'1 ', 6.44176E-1, 5.65075E-1,    0.05836, 0.00000E+0, 0.00000E+0, 0.00000E+0, 0.00000E+0
0  / END OF ZERO SEQ. NON-TRANSFORMER BRANCH DATA, BEGIN ZERO SEQ. MUTUAL DATA
0  / END OF ZERO SEQ. MUTUAL DATA, BEGIN ZERO SEQ. TRANSFORMER DATA
0  / END OF ZERO SEQ. TRANSFORMER DATA, BEGIN ZERO SEQ. SWITCHED SHUNT DATA
0  / END OF ZERO SEQ. SWITCHED SHUNT DATA, BEGIN ZERO SEQ. FIXED SHUNT DATA
     3,'1 ', 0.00000E+00, 0.00000E+00
     4,'1 ', 0.00000E+00, 0.00000E+00
    33,'1 ', 0.00000E+00, 0.00000E+00
    41,'1 ', 0.00000E+00, 0.00000E+00
    59,'1 ', 0.00000E+00, 0.00000E+00
    61,'1 ', 0.00000E+00, 0.00000E+00
    62,'1 ', 0.00000E+00, 0.00000E+00
    63,'1 ', 0.00000E+00, 0.00000E+00
    69,'1 ', 0.00000E+00, 0.00000E+00
    70,'2 ', 0.00000E+00, 0.00000E+00
   214,'1 ', 0.00000E+00, 0.00000E+00
   215,'1 ', 0.00000E+00, 0.00000E+00
   216,'1 ', 0.00000E+00, 0.00000E+00
   217,'1 ', 0.00000E+00, 0.00000E+00
   218,'1 ', 0.00000E+00, 0.00000E+00
   221,'1 ', 0.00000E+00, 0.00000E+00
   233,'1 ', 0.00000E+00, 0.00000E+00
   234,'1 ', 0.00000E+00, 0.00000E+00
   235,'1 ', 0.00000E+00, 0.00000E+00
   236,'1 ', 0.00000E+00, 0.00000E+00
   237,'1 ', 0.00000E+00, 0.00000E+00
   238,'1 ', 0.00000E+00, 0.00000E+00
   239,'1 ', 0.00000E+00, 0.00000E+00
0  / END OF ZERO SEQ. FIXED SHUNT DATA
